      64
 i =        0, time =        0.000, E =     -4138.3607248530
  U         0.0001575247       -0.0000974627       -0.0000396968
 Cl         0.0001485219       -0.0001035071       -0.0001298133
 Cl        -0.0000997452       -0.0001718961       -0.0002636378
 Cl         0.0005294695       -0.0003775357        0.0001847299
  U         0.0001895436       -0.0000768711        0.0000163082
 Cl         0.0001702362       -0.0001811190        0.0003566095
 Cl         0.0000069253       -0.0001773785        0.0002216934
 Cl        -0.0003900418       -0.0002998935       -0.0002020042
  U        -0.0001152102        0.0000954779       -0.0001062047
 Cl        -0.0000480071        0.0005354468       -0.0001742976
 Cl        -0.0001067291        0.0004379792       -0.0001799700
 Cl         0.0001972642       -0.0000818051        0.0003241984
  U         0.0000022811        0.0000363708       -0.0001332924
 Cl        -0.0001816321       -0.0000570707        0.0002362137
 Cl        -0.0000300987        0.0004750254        0.0000079115
 Cl         0.0005179107        0.0001619033        0.0000754524
  U        -0.0000077144       -0.0001494157        0.0001015087
 Cl        -0.0000810980        0.0001129501        0.0000954832
 Cl         0.0001553206        0.0000103364       -0.0000580474
 Cl        -0.0001700512        0.0002400970        0.0001245622
  U         0.0000605696       -0.0000133368        0.0001982990
 Cl        -0.0002935869        0.0000091026       -0.0001160871
 Cl         0.0003903768        0.0000110495       -0.0001532460
 Cl        -0.0007273840       -0.0000633729        0.0000371982
  U        -0.0001073300        0.0000799257       -0.0000765412
 Cl         0.0003937438        0.0002677931        0.0003386485
 Cl         0.0001418574       -0.0003963181        0.0001222036
 Cl         0.0000953177        0.0000197149        0.0000026455
  U        -0.0001692891       -0.0000246897        0.0000493938
 Cl        -0.0003322955        0.0000139503       -0.0001065764
 Cl        -0.0000206722        0.0003398522        0.0002381698
 Cl        -0.0001769075        0.0001602687        0.0002609762
  U         0.0002084540        0.0001131913        0.0001096867
 Cl         0.0000936798       -0.0002437741       -0.0001977579
 Cl         0.0005004849        0.0001897932       -0.0001821211
 Cl        -0.0003241962       -0.0002851124        0.0000365648
  U        -0.0001745148        0.0000822040       -0.0000595168
 Cl        -0.0001204815        0.0004720182        0.0001328430
 Cl         0.0000090086       -0.0000767367       -0.0000184163
 Cl        -0.0003881359       -0.0000119949        0.0000291699
  U         0.0000189541        0.0000110016       -0.0001757610
 Cl        -0.0001320841       -0.0002800031       -0.0001539725
 Cl        -0.0001428386       -0.0001216455       -0.0001146620
 Cl         0.0000734405       -0.0001641796       -0.0000323050
  U        -0.0001678146       -0.0001704483       -0.0000213631
 Cl        -0.0000680334       -0.0001349575       -0.0002656093
 Cl         0.0001629845        0.0000687712       -0.0005477639
 Cl         0.0001283566        0.0003875427       -0.0000100111
  U        -0.0001561981       -0.0000285417       -0.0000522702
 Cl         0.0001713935       -0.0001296060        0.0000763883
 Cl         0.0001534919       -0.0000142709       -0.0000217351
 Cl         0.0003022015       -0.0002672803        0.0002931512
  U         0.0000541725        0.0002104300        0.0000885151
 Cl         0.0000204327        0.0000304423        0.0000496918
 Cl        -0.0004067793       -0.0000744569       -0.0004569520
 Cl        -0.0002165723       -0.0002483197       -0.0000649469
  U         0.0001259256       -0.0000240158       -0.0000693136
 Cl         0.0004756584       -0.0001226430        0.0003434321
 Cl         0.0000606915       -0.0000325279        0.0003551494
 Cl         0.0000855762       -0.0001199728       -0.0001078232
  U        -0.0000501733        0.0000674863        0.0000958356
 Cl         0.0001309255       -0.0002873195        0.0000253072
 Cl        -0.0000469120        0.0000465696       -0.0001091869
 Cl         0.0002673229       -0.0002132094        0.0001981519
