      64
 i =        0, time =        0.000, E =     -4138.3607248530
  U         1.8969330000        7.7549370000        2.6593320000
 Cl         1.0049450000        6.6375980000        4.7101640000
 Cl         0.5348920000        7.7254440000        0.5270860000
 Cl         4.1509620000        8.9017690000        2.7407470000
  U         6.3164810000        8.8122980000        4.9237560000
 Cl         6.1135930000       10.7467530000        3.3531770000
 Cl         5.8392360000        9.1460110000        7.3861480000
 Cl         6.9966150000        6.5441290000        4.0319440000
  U         3.5736670000        5.3688490000        1.2489410000
 Cl         1.4289450000        5.5905610000        2.5142510000
 Cl         4.0791900000        3.2197850000        0.0126270000
 Cl         5.2128660000        7.2962010000        1.2199440000
  U         2.8962010000        8.4957790000        4.4890260000
 Cl         0.5106070000        8.9405300000        3.8880820000
 Cl         4.2449320000        6.8514100000        3.1180850000
 Cl         3.9330660000        9.6953960000        6.4609110000
  U        10.1675000000        8.8489160000        2.5489430000
 Cl        10.5626330000        8.0267000000        0.2213200000
 Cl        10.1006600000       11.3376160000        3.0010520000
 Cl         9.8392080000        7.1824310000        4.4244580000
  U         4.0655440000        4.0785300000        6.2397840000
 Cl         4.5787810000        2.0379590000        7.5898420000
 Cl         4.1035600000        3.9478710000        3.7131300000
 Cl         3.5142910000        6.2497600000        7.4163810000
  U         8.8865930000       10.1669290000        7.6154150000
 Cl         9.6257810000        7.7830460000        7.7592920000
 Cl         6.6737940000       10.8530850000        8.6328690000
 Cl        10.3602040000       11.8646570000        6.4540830000
  U        10.0656550000        3.7767140000        7.2673860000
 Cl         8.1078420000        2.4352780000        8.0532110000
 Cl        12.1352270000        3.9336420000        8.7147100000
 Cl         9.9538970000        4.9612210000        5.0342380000
  U         5.3770840000        4.1303530000        8.0663480000
 Cl         3.0673360000        3.5571080000        8.8321490000
 Cl         6.5779430000        2.5918490000        6.4559310000
 Cl         6.4859750000        6.2421020000        8.9109650000
  U         9.6657060000        7.3834940000       10.2010320000
 Cl        10.3805700000        6.4316060000        0.0174230000
 Cl         9.7911950000        9.8818850000        9.8205160000
 Cl         8.8253520000        5.8369900000        8.3831680000
  U         6.0121130000        4.3962950000        5.1790210000
 Cl         5.8953430000        2.6766040000        3.3682130000
 Cl         4.2570910000        6.2156500000        5.2901360000
 Cl         7.8839060000        4.2966330000        6.8787160000
  U         8.3351900000        3.0515500000        2.8088940000
 Cl         8.5564490000        1.6741480000        4.8834560000
 Cl         6.4638320000        4.7448330000        2.6263900000
 Cl         9.9852900000        2.7356670000        0.9168340000
  U         0.9095570000        4.4116630000        7.7655590000
 Cl         1.0195710000        4.3463840000       10.2622830000
 Cl         0.0221040000        6.4787450000        6.6070690000
 Cl         1.6869940000        2.4098590000        6.4273240000
  U         2.0315090000       10.6341970000        8.1458160000
 Cl         2.0401390000       11.2016960000       10.5805370000
 Cl         1.1708880000        8.3775140000        7.3913530000
 Cl         2.8835010000       12.3233810000        6.4655570000
  U         6.9710190000       10.5910740000        6.3397340000
 Cl         7.7377670000        8.2164960000        6.4929500000
 Cl         4.8815280000       11.1476160000        5.0256610000
 Cl         8.2937620000        0.0271210000        7.5005920000
  U         2.8883190000       10.7967210000        3.2387080000
 Cl         2.5740990000        9.2893850000        1.2691390000
 Cl         4.8154870000        0.0542210000        3.2631710000
 Cl         1.2753720000       10.6645680000        5.1838140000
